units(length='cm', time='s', quantity='mol', act_energy='kcal/mol')

ideal_gas(name='gas',
          elements="H D T C Ci O Oi N Ne Ar He Si S F Cl Br I X",
          species="""Ar          He          Ne          N2
                     C7H16(1)    C4H9(4)     C3H7(5)     C5H11(6)
                     C2H5(7)     C7H15(8)    H(9)        C7H15(10)
                     C6H13(11)   CH3(12)     C7H15(13)   CH2(T)(15)
                     C2H4(17)    C5H10(20)   C3H6(21)    CC(29)
                     C4H8(33)    C4H8(34)    C3H6(38)    C3H7(40)
                     C6H12(42)   C2H3(50)    C2H4(51)    C3H5(53)
                     C3H5(68)    C3H5(69)    C3H6(70)    CH4(73)
                     H2(74)      C4H8(167)   C3H4(194)   C#C(229)
                     C3H3(264)   C2H2(299)   C1CC1(313)  C#CC(317)
                     C4H8(320)   C4H8(500)   C3H4(554)""",
          reactions='all',
          transport='Mix',
          initial_state=state(temperature=300.0, pressure=OneAtm))

#-------------------------------------------------------------------------------
# Element data
#-------------------------------------------------------------------------------

element(symbol='Ci', atomic_mass=13.003)
element(symbol='D', atomic_mass=2.014)
element(symbol='Oi', atomic_mass=18.0)
element(symbol='T', atomic_mass=3.016)
element(symbol='X', atomic_mass=195.083)
#-------------------------------------------------------------------------------
# Species data
#-------------------------------------------------------------------------------

species(name='Ar',
        atoms='Ar:1',
        thermo=(NASA([200.00, 1000.00],
                     [ 2.50000000E+00,  0.00000000E+00,  0.00000000E+00,
                       0.00000000E+00,  0.00000000E+00, -7.45375000E+02,
                       4.37967000E+00]),
                NASA([1000.00, 6000.00],
                     [ 2.50000000E+00,  0.00000000E+00,  0.00000000E+00,
                       0.00000000E+00,  0.00000000E+00, -7.45375000E+02,
                       4.37967000E+00])),
        transport=gas_transport(geom='atom',
                                diam=3.33,
                                well_depth=136.501))

species(name='He',
        atoms='He:1',
        thermo=(NASA([200.00, 1000.00],
                     [ 2.50000000E+00,  0.00000000E+00,  0.00000000E+00,
                       0.00000000E+00,  0.00000000E+00, -7.45375000E+02,
                       9.28724000E-01]),
                NASA([1000.00, 6000.00],
                     [ 2.50000000E+00,  0.00000000E+00,  0.00000000E+00,
                       0.00000000E+00,  0.00000000E+00, -7.45375000E+02,
                       9.28724000E-01])),
        transport=gas_transport(geom='atom',
                                diam=2.576,
                                well_depth=10.2))

species(name='Ne',
        atoms='Ne:1',
        thermo=(NASA([200.00, 1000.00],
                     [ 2.50000000E+00,  0.00000000E+00,  0.00000000E+00,
                       0.00000000E+00,  0.00000000E+00, -7.45375000E+02,
                       3.35532000E+00]),
                NASA([1000.00, 6000.00],
                     [ 2.50000000E+00,  0.00000000E+00,  0.00000000E+00,
                       0.00000000E+00,  0.00000000E+00, -7.45375000E+02,
                       3.35532000E+00])),
        transport=gas_transport(geom='atom',
                                diam=3.758,
                                well_depth=148.6))

species(name='N2',
        atoms='N:2',
        thermo=(NASA([200.00, 1000.00],
                     [ 3.53101000E+00, -1.23661000E-04, -5.02999000E-07,
                       2.43531000E-09, -1.40881000E-12, -1.04698000E+03,
                       2.96747000E+00]),
                NASA([1000.00, 6000.00],
                     [ 2.95258000E+00,  1.39690000E-03, -4.92632000E-07,
                       7.86010000E-11, -4.60755000E-15, -9.23949000E+02,
                       5.87189000E+00])),
        transport=gas_transport(geom='linear',
                                diam=3.621,
                                well_depth=97.53,
                                polar=1.76,
                                rot_relax=4.0))

species(name='C7H16(1)',
        atoms='C:7 H:16',
        thermo=(NASA([100.00, 1262.75],
                     [-2.94189164E-03,  7.69376335E-02, -3.48033730E-05,
                       1.86184664E-09,  2.01541991E-12, -2.57829331E+04,
                       3.00313067E+01]),
                NASA([1262.75, 5000.00],
                     [ 1.38380732E+01,  4.85940632E-02, -1.95472179E-05,
                       3.52831850E-09, -2.39060420E-13, -3.05142885E+04,
                      -4.48658971E+01])),
        transport=gas_transport(geom='nonlinear',
                                diam=6.366,
                                well_depth=402.997))

species(name='C4H9(4)',
        atoms='C:4 H:9',
        thermo=(NASA([100.00, 1048.10],
                     [ 2.34848687E+00,  2.91323355E-02,  9.83671148E-06,
                      -2.60509727E-08,  1.01152526E-11,  7.39526530E+03,
                       1.73201681E+01]),
                NASA([1048.10, 5000.00],
                     [ 7.21571226E+00,  2.70037119E-02, -1.06547464E-05,
                       1.95472595E-09, -1.35978323E-13,  5.47163968E+03,
                      -1.06995257E+01])),
        transport=gas_transport(geom='nonlinear',
                                diam=5.176,
                                well_depth=357.002,
                                rot_relax=1.0))

species(name='C3H7(5)',
        atoms='C:3 H:7',
        thermo=(NASA([100.00, 995.41],
                     [ 3.09192631E+00,  1.32170880E-02,  2.75853246E-05,
                      -3.90856308E-08,  1.43316515E-11,  1.02284112E+04,
                       1.24057398E+01]),
                NASA([995.41, 5000.00],
                     [ 5.69425638E+00,  1.96034310E-02, -7.42054881E-06,
                       1.35884192E-09, -9.56225138E-14,  8.87587072E+03,
                      -4.32859816E+00])),
        transport=gas_transport(geom='nonlinear',
                                diam=4.982,
                                well_depth=266.801,
                                rot_relax=1.0))

species(name='C5H11(6)',
        atoms='C:5 H:11',
        thermo=(NASA([100.00, 1123.46],
                     [ 1.58665752E+00,  4.52266358E-02, -8.34996625E-06,
                      -1.27363000E-08,  5.90990506E-12,  4.56295629E+03,
                       2.23029668E+01]),
                NASA([1123.46, 5000.00],
                     [ 9.06518537E+00,  3.38790295E-02, -1.35993711E-05,
                       2.48443705E-09, -1.70982539E-13,  1.91835835E+03,
                      -1.89385739E+01])),
        transport=gas_transport(geom='nonlinear',
                                diam=5.734,
                                well_depth=367.022))

species(name='C2H5(7)',
        atoms='C:2 H:5',
        thermo=(NASA([100.00, 900.31],
                     [ 3.82184989E+00, -3.43377991E-03,  5.09263978E-05,
                      -6.20221140E-08,  2.37077804E-11,  1.30660123E+04,
                       7.61638444E+00]),
                NASA([900.31, 5000.00],
                     [ 5.15617216E+00,  9.43128992E-03, -1.81949793E-06,
                       2.21204897E-10, -1.43488968E-14,  1.20640973E+04,
                      -2.91078172E+00])),
        transport=gas_transport(geom='nonlinear',
                                diam=4.302,
                                well_depth=252.301,
                                rot_relax=1.5))

species(name='C7H15(8)',
        atoms='C:7 H:15',
        thermo=(NASA([100.00, 2507.44],
                     [ 8.69629886E-01,  7.03717775E-02, -3.49834636E-05,
                       7.97987416E-09, -7.11973974E-13, -2.43792432E+03,
                       3.01351341E+01]),
                NASA([2507.44, 5000.00],
                     [ 2.36826202E+01,  3.39793677E-02, -1.32128496E-05,
                       2.19161423E-09, -1.34866577E-13, -1.38783875E+04,
                      -1.00895524E+02])),
        transport=gas_transport(geom='nonlinear',
                                diam=6.366,
                                well_depth=402.997))

species(name='H(9)',
        atoms='H:1',
        thermo=(NASA([100.00, 3459.60],
                     [ 2.50000000E+00,  9.24384602E-15, -1.36779837E-17,
                       6.66184769E-21, -1.00106912E-24,  2.54742178E+04,
                      -4.44972896E-01]),
                NASA([3459.60, 5000.00],
                     [ 2.49999999E+00,  9.20455546E-12, -3.58608293E-15,
                       6.15198922E-19, -3.92041801E-23,  2.54742178E+04,
                      -4.44972842E-01])),
        transport=gas_transport(geom='atom',
                                diam=2.05,
                                well_depth=145.0))

species(name='C7H15(10)',
        atoms='C:7 H:15',
        thermo=(NASA([100.00, 2507.44],
                     [ 8.69629886E-01,  7.03717775E-02, -3.49834636E-05,
                       7.97987416E-09, -7.11973974E-13, -2.43792432E+03,
                       2.94419869E+01]),
                NASA([2507.44, 5000.00],
                     [ 2.36826202E+01,  3.39793677E-02, -1.32128496E-05,
                       2.19161423E-09, -1.34866577E-13, -1.38783875E+04,
                      -1.01588671E+02])),
        transport=gas_transport(geom='nonlinear',
                                diam=6.366,
                                well_depth=402.997))

species(name='C6H13(11)',
        atoms='C:6 H:13',
        thermo=(NASA([100.00, 1257.31],
                     [ 7.95708932E-01,  6.15830599E-02, -2.70844017E-05,
                       7.89300797E-10,  1.81279329E-12,  1.73205115E+03,
                       2.73957952E+01]),
                NASA([1257.31, 5000.00],
                     [ 1.17154191E+01,  3.95170059E-02, -1.58793591E-05,
                       2.86531620E-09, -1.94138671E-13, -2.01559669E+03,
                      -3.17695638E+01])),
        transport=gas_transport(geom='nonlinear',
                                diam=6.051,
                                well_depth=385.187))

species(name='CH3(12)',
        atoms='C:1 H:3',
        thermo=(NASA([100.00, 1337.62],
                     [ 3.91546814E+00,  1.84153769E-03,  3.48743380E-06,
                      -3.32749306E-09,  8.49962607E-13,  1.62856393E+04,
                       3.51739531E-01]),
                NASA([1337.62, 5000.00],
                     [ 3.54144973E+00,  4.76788014E-03, -1.82149053E-06,
                       3.28877978E-10, -2.22546695E-14,  1.62239617E+04,
                       1.66039430E+00])),
        transport=gas_transport(geom='nonlinear',
                                diam=3.8,
                                well_depth=144.001))

species(name='C7H15(13)',
        atoms='C:7 H:15',
        thermo=(NASA([100.00, 2217.91],
                     [ 6.30265319E-01,  7.21853605E-02, -3.74649402E-05,
                       9.23896737E-09, -9.11998364E-13, -2.42761913E+03,
                       3.11735792E+01]),
                NASA([2217.91, 5000.00],
                     [ 1.86864086E+01,  3.96206937E-02, -1.54407702E-05,
                       2.61878511E-09, -1.65770247E-13, -1.04368965E+04,
                      -7.03195406E+01])),
        transport=gas_transport(geom='nonlinear',
                                diam=6.366,
                                well_depth=402.997))

species(name='CH2(T)(15)',
        atoms='C:1 H:2',
        thermo=(NASA([100.00, 1104.62],
                     [ 4.01192382E+00, -1.54978209E-04,  3.26297691E-06,
                      -2.40421700E-09,  5.69496383E-13,  4.58676802E+04,
                       5.33200699E-01]),
                NASA([1104.62, 5000.00],
                     [ 3.14983363E+00,  2.96674301E-03, -9.76056097E-07,
                       1.54115341E-10, -9.50338637E-15,  4.60581391E+04,
                       4.77807797E+00])),
        transport=gas_transport(geom='nonlinear',
                                diam=3.8,
                                well_depth=144.001))

species(name='C2H4(17)',
        atoms='C:2 H:4',
        thermo=(NASA([100.00, 940.45],
                     [ 3.97974482E+00, -7.57560400E-03,  5.52973424E-05,
                      -6.36221945E-08,  2.31767313E-11,  5.07746084E+03,
                       4.04622615E+00]),
                NASA([940.45, 5000.00],
                     [ 5.20299255E+00,  7.82442696E-03, -2.12683540E-06,
                       3.79690863E-10, -2.94670972E-14,  3.93628185E+03,
                      -6.62410167E+00])),
        transport=gas_transport(geom='nonlinear',
                                diam=3.971,
                                well_depth=280.801,
                                rot_relax=1.5))

species(name='C5H10(20)',
        atoms='C:5 H:10',
        thermo=(NASA([100.00, 1027.61],
                     [ 1.90149571E+00,  3.62536370E-02,  1.29131970E-05,
                      -3.55766531E-08,  1.43067459E-11, -4.76309683E+03,
                       1.98563437E+01]),
                NASA([1027.61, 5000.00],
                     [ 9.28066816E+00,  3.04041828E-02, -1.19375506E-05,
                       2.20663662E-09, -1.55066879E-13, -7.48742264E+03,
                      -2.18213256E+01])),
        transport=gas_transport(geom='nonlinear',
                                diam=5.533,
                                well_depth=367.083))

species(name='C3H6(21)',
        atoms='C:3 H:6',
        thermo=(NASA([100.00, 1011.02],
                     [ 3.13018669E+00,  1.39359072E-02,  1.71982912E-05,
                      -2.69374391E-08,  9.94943672E-12,  3.49110474E+04,
                       1.33619613E+01]),
                NASA([1011.02, 5000.00],
                     [ 5.48784087E+00,  1.73100603E-02, -6.65292239E-06,
                       1.21645436E-09, -8.50340213E-14,  3.37851419E+04,
                      -1.24869668E+00])),
        transport=gas_transport(geom='nonlinear',
                                diam=5.092,
                                well_depth=329.271))

species(name='CC(29)',
        atoms='C:2 H:6',
        thermo=(NASA([100.00, 954.51],
                     [ 3.78035663E+00, -3.24289416E-03,  5.52390260E-05,
                      -6.38594335E-08,  2.28642934E-11, -1.16203418E+04,
                       5.21025867E+00]),
                NASA([954.51, 5000.00],
                     [ 4.58975877E+00,  1.41508997E-02, -4.75969472E-06,
                       8.60311692E-10, -6.21731174E-14, -1.27217356E+04,
                      -3.61698402E+00])),
        transport=gas_transport(geom='nonlinear',
                                diam=4.302,
                                well_depth=252.301,
                                rot_relax=1.5))

species(name='C4H8(33)',
        atoms='C:4 H:8',
        thermo=(NASA([100.00, 991.79],
                     [ 2.64175443E+00,  2.03700480E-02,  3.05815244E-05,
                      -4.85565128E-08,  1.85234230E-11, -1.92980873E+03,
                       1.49536830E+01]),
                NASA([991.79, 5000.00],
                     [ 7.80830499E+00,  2.29241946E-02, -8.65891277E-06,
                       1.60051487E-09, -1.13877962E-13, -4.10508365E+03,
                      -1.57291960E+01])),
        transport=gas_transport(geom='nonlinear',
                                diam=5.176,
                                well_depth=357.002,
                                rot_relax=1.0))

species(name='C4H8(34)',
        atoms='C:4 H:8',
        thermo=(NASA([100.00, 1492.35],
                     [ 2.59222422E+00,  2.86123717E-02, -6.18623466E-06,
                      -3.09362922E-09,  1.21718385E-12,  3.07686709E+04,
                       1.91945186E+01]),
                NASA([1492.35, 5000.00],
                     [ 6.22714627E+00,  2.57402033E-02, -1.02051904E-05,
                       1.78672058E-09, -1.17176830E-13,  2.89186701E+04,
                      -2.36048286E+00])),
        transport=gas_transport(geom='nonlinear',
                                diam=5.415,
                                well_depth=348.415))

species(name='C3H6(38)',
        atoms='C:3 H:6',
        thermo=(NASA([100.00, 988.01],
                     [ 3.30973225E+00,  8.27538486E-03,  3.37700418E-05,
                      -4.39287847E-08,  1.58763508E-11,  7.67477273E+02,
                       9.64363478E+00]),
                NASA([988.01, 5000.00],
                     [ 5.41219741E+00,  1.72863327E-02, -6.51343733E-06,
                       1.20319047E-09, -8.55894339E-14, -5.03241239E+02,
                      -4.80239497E+00])),
        transport=gas_transport(geom='nonlinear',
                                diam=4.982,
                                well_depth=266.801,
                                rot_relax=1.0))

species(name='C3H7(40)',
        atoms='C:3 H:7',
        thermo=(NASA([100.00, 1100.31],
                     [ 3.21174026E+00,  1.31075922E-02,  1.99170991E-05,
                      -2.55874442E-08,  8.25835011E-12,  8.90792350E+03,
                       1.18466702E+01]),
                NASA([1100.31, 5000.00],
                     [ 3.65561665E+00,  2.30583741E-02, -9.41367577E-06,
                       1.73591573E-09, -1.20101549E-13,  8.11020671E+03,
                       6.48169214E+00])),
        transport=gas_transport(geom='nonlinear',
                                diam=4.982,
                                well_depth=266.801,
                                rot_relax=1.0))

species(name='C6H12(42)',
        atoms='C:6 H:12',
        thermo=(NASA([100.00, 1073.47],
                     [ 1.14824874E+00,  5.22684335E-02, -5.10107556E-06,
                      -2.23284578E-08,  1.00607390E-11, -7.59580390E+03,
                       2.48069514E+01]),
                NASA([1073.47, 5000.00],
                     [ 1.09451542E+01,  3.75731691E-02, -1.50431726E-05,
                       2.77296624E-09, -1.93021736E-13, -1.09557821E+04,
                      -2.90051936E+01])),
        transport=gas_transport(geom='nonlinear',
                                diam=5.851,
                                well_depth=385.248))

species(name='C2H3(50)',
        atoms='C:2 H:3',
        thermo=(NASA([100.00, 931.97],
                     [ 3.90668403E+00, -4.06214529E-03,  3.86770169E-05,
                      -4.62962753E-08,  1.72894179E-11,  3.47971792E+04,
                       6.09796572E+00]),
                NASA([931.97, 5000.00],
                     [ 5.44803106E+00,  4.98344731E-03, -1.08814089E-06,
                       1.79821327E-10, -1.45082912E-14,  3.38297479E+04,
                      -4.87844976E+00])),
        transport=gas_transport(geom='nonlinear',
                                diam=4.1,
                                well_depth=209.001,
                                rot_relax=1.0))

species(name='C2H4(51)',
        atoms='C:2 H:4',
        thermo=(NASA([100.00, 1066.91],
                     [ 3.71555285E+00,  3.77628863E-03,  1.62276341E-05,
                      -1.84174083E-08,  5.90989215E-12,  4.26315359E+04,
                       6.27891489E+00]),
                NASA([1066.91, 5000.00],
                     [ 3.48115208E+00,  1.16883236E-02, -4.78434465E-06,
                       8.90802948E-10, -6.22433680E-14,  4.22812570E+04,
                       5.54898694E+00])),
        transport=gas_transport(geom='nonlinear',
                                diam=4.443,
                                well_depth=110.7))

species(name='C3H5(53)',
        atoms='C:3 H:5',
        thermo=(NASA([100.00, 952.01],
                     [ 3.31925761E+00,  5.66541002E-03,  4.27429213E-05,
                      -5.78804460E-08,  2.21686548E-11,  1.89906190E+04,
                       9.19661604E+00]),
                NASA([952.01, 5000.00],
                     [ 7.55730020E+00,  1.14808556E-02, -3.63937654E-06,
                       6.63548905E-10, -4.95288841E-14,  1.71132219E+04,
                      -1.66631968E+01])),
        transport=gas_transport(geom='nonlinear',
                                diam=4.85,
                                well_depth=260.001,
                                rot_relax=1.0))

species(name='C3H5(68)',
        atoms='C:3 H:5',
        thermo=(NASA([100.00, 1095.64],
                     [ 3.26571550E+00,  1.29760039E-02,  8.77811510E-06,
                      -1.46319930E-08,  5.01183947E-12,  2.93713323E+04,
                       1.02771227E+01]),
                NASA([1095.64, 5000.00],
                     [ 4.46554688E+00,  1.63912862E-02, -6.57041819E-06,
                       1.20129100E-09, -8.27702640E-14,  2.86405109E+04,
                       2.24373136E+00])),
        transport=gas_transport(geom='nonlinear',
                                diam=4.85,
                                well_depth=260.001,
                                rot_relax=1.0))

species(name='C3H5(69)',
        atoms='C:3 H:5',
        thermo=(NASA([100.00, 997.87],
                     [ 3.23408489E+00,  1.18207892E-02,  1.70307259E-05,
                      -2.64368418E-08,  9.91227536E-12,  3.04873063E+04,
                       1.03182664E+01]),
                NASA([997.87, 5000.00],
                     [ 5.66469776E+00,  1.44326325E-02, -5.46739258E-06,
                       1.00158204E-09, -7.04862303E-14,  2.93870910E+04,
                      -4.48504747E+00])),
        transport=gas_transport(geom='nonlinear',
                                diam=4.85,
                                well_depth=260.001,
                                rot_relax=1.0))

species(name='C3H6(70)',
        atoms='C:3 H:6',
        thermo=(NASA([100.00, 1330.24],
                     [ 2.92363266E+00,  2.10869369E-02, -1.82390515E-06,
                      -5.35956106E-09,  1.86097484E-12,  3.71014625E+04,
                       1.98374355E+01]),
                NASA([1330.24, 5000.00],
                     [ 5.20764963E+00,  2.05522147E-02, -8.36242971E-06,
                       1.49634871E-09, -1.00128742E-13,  3.59334566E+04,
                       6.06041820E+00])),
        transport=gas_transport(geom='nonlinear',
                                diam=5.118,
                                well_depth=237.1))

species(name='CH4(73)',
        atoms='C:1 H:4',
        thermo=(NASA([100.00, 1084.10],
                     [ 4.20542758E+00, -5.35571566E-03,  2.51128046E-05,
                      -2.13768731E-08,  5.97547545E-12, -1.01619438E+04,
                      -9.21323732E-01]),
                NASA([1084.10, 5000.00],
                     [ 9.08194650E-01,  1.14542029E-02, -4.57180431E-06,
                       8.29207009E-10, -5.66327456E-14, -9.71994330E+03,
                       1.39934970E+01])),
        transport=gas_transport(geom='nonlinear',
                                diam=3.746,
                                well_depth=141.4,
                                polar=2.6,
                                rot_relax=13.0))

species(name='H2(74)',
        atoms='H:2',
        thermo=(NASA([100.00, 1959.08],
                     [ 3.43536414E+00,  2.12710192E-04, -2.78624678E-07,
                       3.40266880E-10, -7.76031289E-14, -1.03135984E+03,
                      -3.90841739E+00]),
                NASA([1959.08, 5000.00],
                     [ 2.78816389E+00,  5.87643458E-04,  1.59009239E-07,
                      -5.52736663E-11,  4.34309261E-15, -5.96143127E+02,
                       1.12744135E-01])),
        transport=gas_transport(geom='linear',
                                diam=2.92,
                                well_depth=38.0,
                                polar=0.79,
                                rot_relax=280.0))

species(name='C4H8(167)',
        atoms='C:4 H:8',
        thermo=(NASA([100.00, 1802.40],
                     [ 2.23551666E+00,  3.62127727E-02, -1.62668713E-05,
                       2.77190466E-09, -6.63705688E-14,  3.42663128E+04,
                       2.52570346E+01]),
                NASA([1802.40, 5000.00],
                     [ 1.05022798E+01,  2.26355895E-02, -8.93642424E-06,
                       1.52850372E-09, -9.75174556E-14,  3.05116766E+04,
                      -2.16443165E+01])),
        transport=gas_transport(geom='nonlinear',
                                diam=4.687,
                                well_depth=531.4))

species(name='C3H4(194)',
        atoms='C:3 H:4',
        thermo=(NASA([100.00, 966.19],
                     [ 3.36163218E+00,  7.77108918E-03,  2.52440237E-05,
                      -3.61896885E-08,  1.38595341E-11,  2.20057244E+04,
                       7.12448002E+00]),
                NASA([966.19, 5000.00],
                     [ 6.46485686E+00,  1.06812613E-02, -3.73735496E-06,
                       6.87015308E-10, -4.98584614E-14,  2.06705702E+04,
                      -1.15462116E+01])),
        transport=gas_transport(geom='nonlinear',
                                diam=4.785,
                                well_depth=330.322))

species(name='C#C(229)',
        atoms='C:2 H:2',
        thermo=(NASA([100.00, 888.62],
                     [ 3.03575425E+00,  7.71230295E-03,  2.53526494E-06,
                      -1.08137932E-08,  5.50779778E-12,  2.58526440E+04,
                       4.54458864E+00]),
                NASA([888.62, 5000.00],
                     [ 5.76202778E+00,  2.37161847E-03, -1.49600875E-07,
                      -2.19110852E-11,  2.21742319E-15,  2.50944570E+04,
                      -9.82598807E+00])),
        transport=gas_transport(geom='linear',
                                diam=4.1,
                                well_depth=209.001,
                                rot_relax=2.5))

species(name='C3H3(264)',
        atoms='C:3 H:3',
        thermo=(NASA([100.00, 960.56],
                     [ 3.32025673E+00,  1.08736483E-02,  8.62047321E-06,
                      -1.82971426E-08,  7.68641189E-12,  3.95352632E+04,
                       8.27851814E+00]),
                NASA([960.56, 5000.00],
                     [ 6.38511700E+00,  8.14484188E-03, -2.78732812E-06,
                       4.95345406E-10, -3.50146178E-14,  3.84835632E+04,
                      -8.79389224E+00])),
        transport=gas_transport(geom='nonlinear',
                                diam=4.76,
                                well_depth=252.0,
                                rot_relax=1.0))

species(name='C2H2(299)',
        atoms='C:2 H:2',
        thermo=(NASA([100.00, 1423.26],
                     [ 3.69251648E+00,  6.06584741E-03, -2.11277646E-06,
                       1.63538162E-11,  1.07665421E-13,  4.81741496E+04,
                       3.96842361E+00]),
                NASA([1423.26, 5000.00],
                     [ 4.43042020E+00,  4.87757369E-03, -1.79374433E-06,
                       3.04085353E-10, -1.96652117E-14,  4.78744102E+04,
                      -1.67077215E-01])),
        transport=gas_transport(geom='nonlinear',
                                diam=4.1,
                                well_depth=209.0,
                                rot_relax=2.5))

species(name='C1CC1(313)',
        atoms='C:3 H:6',
        thermo=(NASA([100.00, 941.89],
                     [ 3.69950200E+00, -8.91759321E-03,  9.30679646E-05,
                      -1.12247050E-07,  4.18018432E-11,  5.08519793E+03,
                       6.89301348E+00]),
                NASA([941.89, 5000.00],
                     [ 8.27118397E+00,  1.14867593E-02, -2.84109257E-06,
                       5.21718166E-10, -4.31885694E-14,  2.45770610E+03,
                      -2.42653374E+01])),
        transport=gas_transport(geom='nonlinear',
                                diam=5.289,
                                well_depth=351.793))

species(name='C#CC(317)',
        atoms='C:3 H:4',
        thermo=(NASA([100.00, 883.30],
                     [ 3.30774762E+00,  1.08709941E-02,  1.58531755E-05,
                      -2.85512082E-08,  1.24303832E-11,  2.07247365E+04,
                       7.26855789E+00]),
                NASA([883.30, 5000.00],
                     [ 6.14674829E+00,  9.80870571E-03, -2.37135144E-06,
                       3.20147592E-10, -1.94934699E-14,  1.97631038E+04,
                      -8.68010126E+00])),
        transport=gas_transport(geom='nonlinear',
                                diam=4.844,
                                well_depth=330.551))

species(name='C4H8(320)',
        atoms='C:4 H:8',
        thermo=(NASA([100.00, 1081.86],
                     [ 2.61746995E+00,  2.43420247E-02,  1.17373388E-05,
                      -2.39959462E-08,  8.68013540E-12, -3.54151396E+03,
                       1.32442201E+01]),
                NASA([1081.86, 5000.00],
                     [ 5.99489100E+00,  2.61387693E-02, -1.05589370E-05,
                       1.94788231E-09, -1.35284292E-13, -5.10821911E+03,
                      -7.17900104E+00])),
        transport=gas_transport(geom='nonlinear',
                                diam=5.289,
                                well_depth=359.053))

species(name='C4H8(500)',
        atoms='C:4 H:8',
        thermo=(NASA([100.00, 948.05],
                     [ 3.02553129E+00,  3.82841982E-03,  8.75459175E-05,
                      -1.14175662E-07,  4.34520213E-11,  1.16375053E+03,
                       1.23751853E+01]),
                NASA([948.05, 5000.00],
                     [ 1.04140927E+01,  1.75356793E-02, -5.15238037E-06,
                       9.44366070E-10, -7.28488058E-14, -2.25413531E+03,
                      -3.35135200E+01])),
        transport=gas_transport(geom='nonlinear',
                                diam=5.509,
                                well_depth=366.039))

species(name='C3H4(554)',
        atoms='C:3 H:4',
        thermo=(NASA([100.00, 756.49],