!---------------------------------------------------------------------------
!
!
!
!---------------------------------------------------------------------------
ELEMENTS
H C O N
END
SPECIES
N2              pentane(1)          O2(2)              HO2(4)                   
OH(6)           H2O(8)              H2O2(10)           CH2O(14)            
HCO(15)         CH3(16)             CH4(17)            C5H11(425)          
C5H11(426)      
END
!---------------------------------------------------------------------------
!  
!---------------------------------------------------------------------------
!---------------------------------------------------------------------------
!  
!---------------------------------------------------------------------------
REACTIONS    KCAL/MOLE   MOLES
OH(6)+OH(6)(+M)=H2O2(10)(+M)                        1.000e+00 0.000     0.000    
    TCHEB/ 300.000   2100.000 /
    PCHEB/ 0.001     98.692   /
    CHEB/ 6 4/
    CHEB/ 1.072e+01    2.110e+00    -1.926e-01   -4.920e-02  /
    CHEB/ -1.093e+00   3.176e-01    1.372e-01    2.025e-02   /
    CHEB/ -2.767e-01   1.517e-02    1.827e-02    1.143e-02   /
    CHEB/ -1.187e-01   8.062e-03    4.431e-03    2.050e-03   /
    CHEB/ -2.191e-02   -1.518e-02   -4.597e-03   7.856e-04   /
    CHEB/ -3.651e-02   1.298e-02    3.963e-03    -3.457e-04  /
OH(6)+pentane(1)=H2O(8)+C5H11(426)                  1.411000e+10 0.935     0.505    
OH(6)+pentane(1)=H2O(8)+C5H11(425)                  2.732000e+07 1.813     0.868    
O2(2)+CH4(17)=HO2(4)+CH3(16)                        2.030000e+05 2.745     51.714   
OH(6)+CH2O(14)=H2O(8)+HCO(15)                       1.000e+00 0.000     0.000    
    PLOG/ 0.040000  3.559e+09 1.167     -0.206   /
    PLOG/ 1.000000  1.854e+09 1.256     -0.302   /
    PLOG/ 10.000000 1.070e+09 1.330     -0.392   /
END