units(length='cm', time='s', quantity='mol', act_energy='kcal/mol')

ideal_gas(name='gas',
          elements="H D T C Ci O Oi N Ne Ar He Si S F Cl Br I X",
          species="""Ar          Ne          N2          pentane(1)
                     O2(2)       H(3)        O(4)        OH(5)
                     H2(6)       H2O(7)      HO2(9)      H2O2(10)
                     C3H7(13)    C2H5(14)    C5H11(15)   C4H9(16)
                     CH3(17)     C5H11(18)   C5H11(19)   C2H4(22)
                     C2H6(24)    C3H6(27)    C4H8(35)    CH4(43)
                     CH3OO(44)   C2H3(60)    allyl(82)   C4H7(186)
                     C4H8(189)   C4H8(396)   CH3OH(428)  C3H4(458)
                     S(462)      C2H2(1342)  C4H6(1350)  S(1351)
                     HCO(1372)   S(1373)     S(1375)     S(1376)
                     S(1381)     CO(2039)    HCCO(2227)  S(2850)
                     CH2O(3111)  S(3676)     CH3O(3737)  C4H6(3743)
                     S(3748)     C4H6(4846)  C4H5(4849)  C3H3(5450)
                     S(6860)     S(15028)    S(16806)    S(16808)
                     S(18646)    S(18658)    S(19053)    S(19061)""",
          reactions='all',
          transport='Mix',
          initial_state=state(temperature=300.0, pressure=OneAtm))

#-------------------------------------------------------------------------------
# Element data
#-------------------------------------------------------------------------------

element(symbol='Ci', atomic_mass=13.003)
element(symbol='D', atomic_mass=2.014)
element(symbol='Oi', atomic_mass=18.0)
element(symbol='T', atomic_mass=3.016)
element(symbol='X', atomic_mass=195.083)
#-------------------------------------------------------------------------------
# Species data
#-------------------------------------------------------------------------------

species(name='Ar',
        atoms='Ar:1',
        thermo=(NASA([100.00, 3459.60],
                     [ 2.50000000E+00,  9.24384602E-15, -1.36779837E-17,
                       6.66184769E-21, -1.00106912E-24, -7.45000000E+02,
                       4.36630363E+00]),
                NASA([3459.60, 5000.00],
                     [ 2.49999999E+00,  9.20455546E-12, -3.58608293E-15,
                       6.15198922E-19, -3.92041801E-23, -7.44999993E+02,
                       4.36630369E+00])),
        transport=gas_transport(geom='atom',
                                diam=3.33,
                                well_depth=136.501))

species(name='Ne',
        atoms='Ne:1',
        thermo=(NASA([200.00, 1000.00],
                     [ 2.50000000E+00,  0.00000000E+00,  0.00000000E+00,
                       0.00000000E+00,  0.00000000E+00, -7.45375000E+02,
                       3.35532000E+00]),
                NASA([1000.00, 6000.00],
                     [ 2.50000000E+00,  0.00000000E+00,  0.00000000E+00,
                       0.00000000E+00,  0.00000000E+00, -7.45375000E+02,
                       3.35532000E+00])),
        transport=gas_transport(geom='atom',
                                diam=3.758,
                                well_depth=148.6))

species(name='N2',
        atoms='N:2',
        thermo=(NASA([100.00, 1817.03],
                     [ 3.61262592E+00, -1.00893087E-03,  2.49898668E-06,
                      -1.43375766E-09,  2.58636097E-13, -1.05110288E+03,
                       2.65270342E+00]),
                NASA([1817.03, 5000.00],
                     [ 2.97589574E+00,  1.64141836E-03, -7.19725730E-07,
                       1.25378453E-10, -7.91532211E-15, -1.02584015E+03,
                       5.53760359E+00])),
        transport=gas_transport(geom='linear',
                                diam=3.621,
                                well_depth=97.53,
                                polar=1.76,
                                rot_relax=4.0))

species(name='pentane(1)',
        atoms='C:5 H:12',
        thermo=(NASA([100.00, 1075.14],
                     [ 1.56220452E+00,  4.43732944E-02,  2.36727612E-06,
                      -2.50990612E-08,  1.02873725E-11, -2.01203090E+04,
                       1.99091168E+01]),
                NASA([1075.14, 5000.00],
                     [ 9.02392002E+00,  3.65682462E-02, -1.45851254E-05,
                       2.67663264E-09, -1.85596766E-13, -2.28781621E+04,
                      -2.19937917E+01])),
        transport=gas_transport(geom='nonlinear',
                                diam=5.734,
                                well_depth=367.022))

species(name='O2(2)',
        atoms='O:2',
        thermo=(NASA([100.00, 1087.70],
                     [ 3.53763745E+00, -1.22828195E-03,  5.36760925E-06,
                      -4.93130941E-09,  1.45956247E-12, -1.03799028E+03,
                       4.67179595E+00]),
                NASA([1087.70, 5000.00],
                     [ 3.16426929E+00,  1.69454205E-03, -8.00338427E-07,
                       1.59030687E-10, -1.14891540E-14, -1.04844411E+03,
                       6.08304699E+00])),
        transport=gas_transport(geom='linear',
                                diam=3.458,
                                well_depth=107.4,
                                polar=1.6,
                                rot_relax=3.8))

species(name='H(3)',
        atoms='H:1',
        thermo=(NASA([100.00, 3459.60],
                     [ 2.50000000E+00,  9.24384602E-15, -1.36779837E-17,
                       6.66184769E-21, -1.00106912E-24,  2.54727081E+04,
                      -4.59566246E-01]),
                NASA([3459.60, 5000.00],
                     [ 2.49999999E+00,  9.20455546E-12, -3.58608293E-15,
                       6.15198922E-19, -3.92041801E-23,  2.54727081E+04,
                      -4.59566192E-01])),
        transport=gas_transport(geom='atom',
                                diam=2.05,
                                well_depth=145.0))

species(name='O(4)',
        atoms='O:1',
        thermo=(NASA([100.00, 3459.60],
                     [ 2.50000000E+00,  9.24384602E-15, -1.36779837E-17,
                       6.66184769E-21, -1.00106912E-24,  2.92267216E+04,
                       5.11106770E+00]),
                NASA([3459.60, 5000.00],
                     [ 2.49999999E+00,  9.20455546E-12, -3.58608293E-15,
                       6.15198922E-19, -3.92041801E-23,  2.92267216E+04,
                       5.11106776E+00])),
        transport=gas_transport(geom='atom',
                                diam=2.75,
                                well_depth=80.0))

species(name='OH(5)',
        atoms='H:1 O:1',
        thermo=(NASA([100.00, 1005.25],
                     [ 3.48579680E+00,  1.33395571E-03, -4.70038917E-06,
                       5.64373525E-09, -2.06315244E-12,  3.41195698E+03,
                       1.99787332E+00]),
                NASA([1005.25, 5000.00],
                     [ 2.88224844E+00,  1.03869484E-03, -2.35655905E-07,
                       1.40238977E-11,  6.34502095E-16,  3.66956181E+03,
                       5.59055566E+00])),
        transport=gas_transport(geom='linear',
                                diam=2.75,
                                well_depth=80.0))

species(name='H2(6)',
        atoms='H:2',
        thermo=(NASA([100.00, 1962.84],
                     [ 3.42253727E+00,  2.86650599E-04, -4.14672688E-07,
                       4.27549546E-10, -9.38122726E-14, -1.02978489E+03,
                      -3.86364700E+00]),
                NASA([1962.84, 5000.00],
                     [ 2.74219867E+00,  5.79525095E-04,  1.97209494E-07,
                      -6.41108055E-11,  4.96012992E-15, -5.52044337E+02,
                       4.14031719E-01])),
        transport=gas_transport(geom='linear',
                                diam=2.92,
                                well_depth=38.0,
                                polar=0.79,
                                rot_relax=280.0))

species(name='H2O(7)',
        atoms='H:2 O:1',
        thermo=(NASA([100.00, 1281.44],
                     [ 3.99882002E+00, -5.54831232E-04,  2.76774283E-06,
                      -1.55665018E-09,  3.02330517E-13, -3.02745569E+04,
                      -3.08942753E-02]),
                NASA([1281.44, 5000.00],
                     [ 3.19560370E+00,  1.95240008E-03, -1.67118239E-07,
                      -2.97938436E-11,  4.45139140E-15, -3.00687022E+04,
                       4.04334503E+00])),
        transport=gas_transport(geom='nonlinear',
                                diam=2.605,
                                well_depth=572.402,
                                dipole=1.844,
                                rot_relax=4.0))

species(name='HO2(9)',
        atoms='H:1 O:2',
        thermo=(NASA([100.00, 923.91],
                     [ 4.02955961E+00, -2.63984693E-03,  1.52230101E-05,
                      -1.71671127E-08,  6.26737115E-12,  3.22677292E+02,
                       4.84428096E+00]),
                NASA([923.91, 5000.00],
                     [ 4.15133347E+00,  1.91145851E-03, -4.11273183E-07,
                       6.34954566E-11, -4.86382808E-15,  8.34203730E+01,
                       3.09340198E+00])),
        transport=gas_transport(geom='nonlinear',
                                diam=3.458,
                                well_depth=107.4,
                                rot_relax=1.0))

species(name='H2O2(10)',
        atoms='H:2 O:2',
        thermo=(NASA([100.00, 923.26],
                     [ 3.72867553E+00,  4.13370723E-03,  5.67522472E-06,
                      -1.01869157E-08,  4.28628103E-12, -1.76963961E+04,
                       5.35909650E+00]),
                NASA([923.26, 5000.00],
                     [ 4.95150251E+00,  3.54232485E-03, -1.01042284E-06,
                       1.61945691E-10, -1.10212664E-14, -1.81227878E+04,
                      -1.52903268E+00])),
        transport=gas_transport(geom='nonlinear',
                                diam=3.458,
                                well_depth=107.4,
                                rot_relax=3.8))

species(name='C3H7(13)',
        atoms='C:3 H:7',
        thermo=(NASA([100.00, 984.47],
                     [ 3.02813321E+00,  1.47026012E-02,  2.40500207E-05,
                      -3.66725698E-08,  1.38605892E-11,  1.05120556E+04,
                       1.24699511E+01]),
                NASA([984.47, 5000.00],
                     [ 6.16551781E+00,  1.84493154E-02, -6.79021054E-06,
                       1.23047218E-09, -8.63849829E-14,  9.09502505E+03,
                      -6.67653656E+00])),
        transport=gas_transport(geom='nonlinear',
                                diam=4.982,
                                well_depth=266.801,
                                rot_relax=1.0))

species(name='C2H5(14)',
        atoms='C:2 H:5',
        thermo=(NASA([100.00, 967.56],
                     [ 3.69275625E+00,  1.87276404E-03,  3.11950429E-05,
                      -3.71211523E-08,  1.32026851E-11,  1.31683444E+04,
                       7.07155157E+00]),
                NASA([967.56, 5000.00],
                     [ 4.21409400E+00,  1.22658242E-02, -4.37067725E-06,
                       7.87986904E-10, -5.56039505E-14,  1.24800858E+04,
                       1.53826661E+00])),
        transport=gas_transport(geom='nonlinear',
                                diam=4.302,
                                well_depth=252.301,
                                rot_relax=1.5))

species(name='C5H11(15)',
        atoms='C:5 H:11',
        thermo=(NASA([100.00, 1648.17],
                     [ 1.93320258E+00,  4.31369232E-02, -1.41036809E-05,
                      -6.73574514E-10,  8.04687018E-13,  3.24831508E+03,
                       2.11642946E+01]),
                NASA([1648.17, 5000.00],
                     [ 9.63714080E+00,  3.33952697E-02, -1.33880487E-05,
                       2.33365901E-09, -1.51516674E-13, -5.07497524E+02,
                      -2.35421028E+01])),
        transport=gas_transport(geom='nonlinear',
                                diam=5.734,
                                well_depth=367.022))

species(name='C4H9(16)',
        atoms='C:4 H:9',
        thermo=(NASA([100.00, 1050.58],
                     [ 2.25387543E+00,  3.16764160E-02,  2.89968555E-06,
                      -1.98045564E-08,  8.20489698E-12,  7.65264318E+03,
                       1.72724784E+01]),
                NASA([1050.58, 5000.00],
                     [ 7.59594074E+00,  2.60841600E-02, -1.01718226E-05,
                       1.85188221E-09, -1.28168761E-13,  5.71635748E+03,
                      -1.26367589E+01])),
        transport=gas_transport(geom='nonlinear',
                                diam=5.176,
                                well_depth=357.002,
                                rot_relax=1.0))

species(name='CH3(17)',
        atoms='C:1 H:3',
        thermo=(NASA([100.00, 660.47],
                     [ 3.94800484E+00,  8.27599825E-04,  8.34931679E-06,
                      -9.82634448E-09,  3.80103844E-12,  1.64253715E+04,
                       3.36655107E-01]),
                NASA([660.47, 5000.00],
                     [ 3.22169527E+00,  5.22646133E-03, -1.64124880E-06,
                       2.58224574E-10, -1.62579384E-14,  1.65213100E+04,
                       3.53938371E+00])),
        transport=gas_transport(geom='nonlinear',
                                diam=3.8,
                                well_depth=144.001))

species(name='C5H11(18)',
        atoms='C:5 H:11',
        thermo=(NASA([100.00, 1461.29],
                     [ 1.77405138E+00,  4.41716351E-02, -1.45097942E-05,
                      -1.38044537E-09,  1.20139224E-12,  3.25458843E+03,
                       2.25950228E+01]),
                NASA([1461.29, 5000.00],
                     [ 8.55188788E+00,  3.45019223E-02, -1.37025710E-05,
                       2.41137883E-09, -1.59036502E-13,  3.25255821E+02,
                      -1.59203572E+01])),
        transport=gas_transport(geom='nonlinear',
                                diam=5.734,
                                well_depth=367.022))

species(name='C5H11(19)',
        atoms='C:5 H:11',
        thermo=(NASA([100.00, 1123.46],
                     [ 1.58665752E+00,  4.52266358E-02, -8.34996625E-06,
                      -1.27363000E-08,  5.90990506E-12,  4.56295629E+03,
                       2.23029668E+01]),
                NASA([1123.46, 5000.00],
                     [ 9.06518537E+00,  3.38790295E-02, -1.35993711E-05,
                       2.48443705E-09, -1.70982539E-13,  1.91835835E+03,
                      -1.89385739E+01])),
        transport=gas_transport(geom='nonlinear',
                                diam=5.734,
                                well_depth=367.022))

species(name='C2H4(22)',
        atoms='C:2 H:4',
        thermo=(NASA([100.00, 946.01],
                     [ 3.98875931E+00, -6.74711838E-03,  5.04397697E-05,
                      -5.70743893E-08,  2.04944793E-11,  5.04704753E+03,
                       3.80494260E+00]),
                NASA([946.01, 5000.00],
                     [ 4.59022435E+00,  8.72722353E-03, -2.66493024E-06,
                       4.81709766E-10, -3.60689709E-14,  4.12701843E+03,
                      -3.32459709E+00])),
        transport=gas_transport(geom='nonlinear',
                                diam=3.971,
                                well_depth=280.801,
                                rot_relax=1.5))

species(name='C2H6(24)',
        atoms='C:2 H:6',
        thermo=(NASA([100.00, 981.60],
                     [ 3.74672878E+00,  4.52281350E-05,  4.07972370E-05,
                      -4.57425643E-08,  1.56847801E-11, -1.14740722E+04,
                       4.74132113E+00]),
                NASA([981.60, 5000.00],
                     [ 3.34696128E+00,  1.61750167E-02, -6.00966285E-06,
                       1.09623011E-09, -7.72310849E-14, -1.20941958E+04,
                       3.10404947E+00])),
        transport=gas_transport(geom='nonlinear',
                                diam=4.302,
                                well_depth=252.301,
                                rot_relax=1.5))

species(name='C3H6(27)',
        atoms='C:3 H:6',
        thermo=(NASA([100.00, 983.75],
                     [ 3.31912052E+00,  8.17959276E-03,  3.34735907E-05,
                      -4.36193397E-08,  1.58213239E-11,  7.49325350E+02,
                       9.54025235E+00]),
                NASA([983.75, 5000.00],
                     [ 5.36755364E+00,  1.70742986E-02, -6.35107437E-06,
                       1.16619485E-09, -8.27619907E-14, -4.87139127E+02,
                      -4.54468607E+00])),
        transport=gas_transport(geom='nonlinear',
                                diam=4.982,
                                well_depth=266.801,
                                rot_relax=1.0))

species(name='C4H8(35)',
        atoms='C:4 H:8',
        thermo=(NASA([100.00, 1007.28],
                     [ 2.58773874E+00,  2.32776815E-02,  1.93416427E-05,
                      -3.55501647E-08,  1.36908273E-11, -1.91872967E+03,
                       1.45750272E+01]),
                NASA([1007.28, 5000.00],
                     [ 7.20513082E+00,  2.36362259E-02, -9.03154003E-06,
                       1.65393603E-09, -1.16020036E-13, -3.79732209E+03,
                      -1.24423955E+01])),
        transport=gas_transport(geom='nonlinear',
                                diam=5.176,
                                well_depth=357.002,
                                rot_relax=1.0))

species(name='CH4(43)',
        atoms='C:1 H:4',
        thermo=(NASA([100.00, 1010.11],
                     [ 4.22005053E+00, -6.48434945E-03,  2.94635276E-05,
                      -2.67192233E-08,  8.05733237E-12, -1.00599683E+04,
                      -8.50161304E-01]),
                NASA([1010.11, 5000.00],
                     [ 1.24009935E+00,  1.07229371E-02, -4.11808596E-06,
                       7.43561681E-10, -5.11689793E-14, -9.73378519E+03,
                       1.21909961E+01])),
        transport=gas_transport(geom='nonlinear',
                                diam=3.746,
                                well_depth=141.4,
                                polar=2.6,
                                rot_relax=13.0))

species(name='CH3OO(44)',
        atoms='C:1 H:3 O:2',
        thermo=(NASA([100.00, 1001.47],
                     [ 3.63772708E+00,  3.81152100E-03,  2.14540199E-05,
                      -2.68366069E-08,  9.49389310E-12,  2.47918628E+02,
                       9.81744111E+00]),
                NASA([1001.47, 5000.00],
                     [ 4.74153210E+00,  1.00948756E-02, -3.97178516E-06,
                       7.49788525E-10, -5.38568184E-14, -5.09344198E+02,
                       1.81364644E+00])),
        transport=gas_transport(geom='nonlinear',
                                diam=3.69,
                                well_depth=417.0,
                                dipole=1.7,
                                rot_relax=2.0))

species(name='C2H3(60)',
        atoms='C:2 H:3',
        thermo=(NASA([100.00, 933.66],
                     [ 3.83070025E+00, -1.47628220E-03,  3.09002379E-05,
                      -3.80476046E-08,  1.43170745E-11,  3.45242398E+04,
                       5.61948531E+00]),
                NASA([933.66, 5000.00],
                     [ 5.36085773E+00,  5.27344506E-03, -1.31959727E-06,
                       2.21563680E-10, -1.68767798E-14,  3.36585843E+04,
                      -4.76325800E+00])),
        transport=gas_transport(geom='nonlinear',
                                diam=4.1,
                                well_depth=209.001,
                                rot_relax=1.0))

species(name='allyl(82)',
        atoms='C:3 H:5',
        thermo=(NASA([100.00, 942.18],
                     [ 3.29614599E+00,  5.79223263E-03,  4.33920500E-05,
                      -5.99890130E-08,  2.33814735E-11,  1.89082146E+04,
                       9.01994167E+00]),
                NASA([942.18, 5000.00],
                     [ 8.06863049E+00,  1.01836571E-02, -2.84794520E-06,
                       5.00879676E-10, -3.79628090E-14,  1.69146831E+04,
                      -1.95271603E+01])),
        transport=gas_transport(geom='nonlinear',
                                diam=4.85,
                                well_depth=260.001,
                                rot_relax=1.0))

species(name='C4H7(186)',
        atoms='C:4 H:7',
        thermo=(NASA([100.00, 995.01],
                     [ 2.68513604E+00,  2.07745750E-02,  2.19954098E-05,
                      -3.85565529E-08,  1.49720324E-11,  1.47127825E+04,
                       1.40723958E+01]),
                NASA([995.01, 5000.00],
                     [ 7.60274592E+00,  2.07981416E-02, -7.87775670E-06,
                       1.45012958E-09, -1.02662476E-13,  1.27543799E+04,
                      -1.45511202E+01])),
        transport=gas_transport(geom='nonlinear',
                                diam=5.213,
                                well_depth=348.453))

species(name='C4H8(189)',
        atoms='C:4 H:8',
        thermo=(NASA([100.00, 1802.40],
                     [ 2.23551666E+00,  3.62127727E-02, -1.62668713E-05,
                       2.77190466E-09, -6.63705688E-14,  3.42663128E+04,
                       2.52570346E+01]),
                NASA([1802.40, 5000.00],
                     [ 1.05022798E+01,  2.26355895E-02, -8.93642424E-06,
                       1.52850372E-09, -9.75174556E-14,  3.05116766E+04,
                      -2.16443165E+01])),
        transport=gas_transport(geom='nonlinear',
                                diam=4.687,
                                well_depth=531.4))

species(name='C4H8(396)',
        atoms='C:4 H:8',
        thermo=(NASA([100.00, 1157.77],
                     [ 2.52000078E+00,  2.76810845E-02,  9.44413202E-07,
                      -1.25016475E-08,  4.67172663E-12, -3.34374844E+03,
                       1.30194988E+01]),
                NASA([1157.77, 5000.00],
                     [ 6.04212312E+00,  2.60074505E-02, -1.04844567E-05,
                       1.90883657E-09, -1.30602721E-13, -4.86270453E+03,
                      -7.52638864E+00])),
        transport=gas_transport(geom='nonlinear',
                                diam=5.289,
                                well_depth=359.053))

species(name='CH3OH(428)',
        atoms='C:1 H:4 O:1',
        thermo=(NASA([100.00, 995.37],
                     [ 3.91002258E+00, -1.31507503E-03,  2.80668750E-05,
                      -2.98995344E-08,  9.91740325E-12, -2.55753744E+04,
                       5.89067654E+00]),
                NASA([995.37, 5000.00],
                     [ 3.01638651E+00,  1.12129860E-02, -4.28041875E-06,
                       7.85995815E-10, -5.52590124E-14, -2.58401877E+04,
                       7.97393715E+00])),
        transport=gas_transport(geom='nonlinear',
                                diam=3.626,
                                well_depth=481.802,
                                rot_relax=1.0))

species(name='C3H4(458)',
        atoms='C:3 H:4',
        thermo=(NASA([100.00, 949.71],
                     [ 3.37447117E+00,  7.04619556E-03,  2.78306229E-05,
                      -3.99444746E-08,  1.55729131E-11,  2.11885608E+04,
                       7.62047675E+00]),
                NASA([949.71, 5000.00],
                     [ 6.79956022E+00,  9.59978946E-03, -3.02068338E-06,
                       5.37827388E-10, -3.92606037E-14,  1.97722716E+04,
                      -1.27582297E+01])),
        transport=gas_transport(geom='nonlinear',
                                diam=4.785,
                                well_depth=330.322))

species(name='S(462)',
        atoms='C:3 H:5 O:2',
        thermo=(NASA([100.00, 1108.68],
                     [ 2.29531969E+00,  3.23534478E-02, -1.53571516E-05,
                      -7.98967660E-10,  1.98651143E-12,  8.68378899E+03,
                       1.85043483E+01]),
                NASA([1108.68, 5000.00],
                     [ 8.87093645E+00,  1.73880920E-02, -6.95984623E-06,
                       1.27730076E-09, -8.84653487E-14,  6.68743434E+03,
                      -1.63252824E+01])),
        transport=gas_transport(geom='nonlinear',
                                diam=5.815,
                                well_depth=420.239))

species(name='C2H2(1342)',
        atoms='C:2 H:2',
        thermo=(NASA([100.00, 897.94],
                     [ 3.08744554E+00,  5.78571935E-03,  8.56332166E-06,
                      -1.72824398E-08,  7.83593602E-12,  2.62737792E+04,
                       4.46079888E+00]),
                NASA([897.94, 5000.00],
                     [ 5.89068487E+00,  2.09055115E-03,  4.88461574E-08,
                      -5.66903215E-11,  4.15084909E-15,  2.54158891E+04,
                      -1.07351762E+01])),
        transport=gas_transport(geom='linear',
                                diam=4.1,
                                well_depth=209.001,
                                rot_relax=2.5))

species(name='C4H6(1350)',
        atoms='C:4 H:6',
        thermo=(NASA([100.00, 946.04],
                     [ 2.80606050E+00,  1.02576188E-02,  6.17290766E-05,
                      -9.01684402E-08,  3.59135689E-11,  1.16584943E+04,
                       1.20619039E+01]),
                NASA([946.04, 5000.00],
                     [ 1.24691527E+01,  1.00557697E-02, -2.41229039E-06,
                       4.57130144E-10, -3.93204698E-14,  8.01086802E+03,
                      -4.36362414E+01])),
        transport=gas_transport(geom='nonlinear',
                                diam=5.18,
                                well_depth=357.002,
                                rot_relax=1.0))

species(name='S(1351)',
        atoms='C:2 H:3 O:1',
        thermo=(NASA([100.00, 957.49],
                     [ 3.51395561E+00,  4.51060458E-03,  2.69938432E-05,
                      -3.71578853E-08,  1.42464837E-11,  8.08755820E+02,
                       8.86321783E+00]),
                NASA([957.49, 5000.00],
                     [ 6.49564336E+00,  7.70517966E-03, -2.52913444E-06,
                       4.69083495E-10, -3.51279683E-14, -4.79661107E+02,
                      -9.13857215E+00])),
        transport=gas_transport(geom='nonlinear',
                                diam=3.97,
                                well_depth=436.001,
                                rot_relax=2.0))

species(name='HCO(1372)',
        atoms='C:1 H:1 O:1',
        thermo=(NASA([100.00, 1105.12],
                     [ 4.06159335E+00, -1.81950395E-03,  9.37895135E-06,
                      -8.24741940E-09,  2.33851014E-12,  3.91858619E+03,
                       3.98389236E+00]),
                NASA([1105.12, 5000.00],
                     [ 3.05335072E+00,  4.10464130E-03, -1.74961849E-06,
                       3.28531776E-10, -2.28985035E-14,  4.00252261E+03,
                       8.32037741E+00])),
        transport=gas_transport(geom='nonlinear',
                                diam=3.59,
                                well_depth=498.002))

species(name='S(1373)',
        atoms='C:2 H:2 O:1',
        thermo=(NASA([100.00, 967.89],
                     [ 3.32241882E+00,  9.93890869E-03,  8.30999508E-06,
                      -1.94096063E-08,  8.42705933E-12,  1.81506243E+04,
                       9.47419563E+00]),
                NASA([967.89, 5000.00],
                     [ 7.72275767E+00,  3.96062173E-03, -1.34290265E-06,
                       2.69348452E-10, -2.14898713E-14,  1.67270291E+04,
                      -1.45650503E+01])),
        transport=gas_transport(geom='nonlinear',
                                diam=3.97,
                                well_depth=436.0,
                                rot_relax=2.0))

species(name='S(1375)',
        atoms='C:2 H:2 O:1',
        thermo=(NASA([100.00, 954.86],
                     [ 3.48301822E+00,  8.32990069E-03,  5.93417020E-06,
                      -1.33939322E-08,  5.73132696E-12, -7.31353163E+03,
                       6.51898337E+00]),
                NASA([954.86, 5000.00],
                     [ 5.88245622E+00,  5.80172526E-03, -1.91265761E-06,
                       3.35917051E-10, -2.37397683E-14, -8.11473040E+03,
                      -6.74201639E+00])),
        transport=gas_transport(geom='nonlinear',
                                diam=3.97,
                                well_depth=436.001,
                                rot_relax=2.0))

species(name='S(1376)',
        atoms='C:2 H:2 O:1',
        thermo=(NASA([100.00, 1030.77],
                     [ 3.44946766E+00,  8.89162395E-03,  4.91273795E-06,
                      -1.14995463E-08,  4.62261194E-12,  1.93780734E+04,
                       9.99239102E+00]),
                NASA([1030.77, 5000.00],
                     [ 6.10651476E+00,  6.25992218E-03, -2.43246609E-06,
                       4.78594038E-10, -3.54632384E-14,  1.84223569E+04,
                      -4.88573253E+00])),
        transport=gas_transport(geom='nonlinear',
                                diam=5.031,
                                well_depth=358.493))

species(name='S(1381)',
        atoms='C:2 H:4 O:1',
        thermo=(NASA([100.00, 1028.80],
                     [ 3.57992906E+00,  5.18977472E-03,  2.26899588E-05,
                      -2.73745325E-08,  9.28490910E-12, -2.13697376E+04,
                       8.96969745E+00]),
                NASA([1028.80, 5000.00],
                     [ 4.08561560E+00,  1.39061588E-02, -5.59372424E-06,
                       1.04609793E-09, -7.38742881E-14, -2.20391245E+04,
                       3.76814662E+00])),
        transport=gas_transport(geom='nonlinear',
                                diam=3.97,
                                well_depth=436.001,
                                rot_relax=2.0))

species(name='CO(2039)',
        atoms='C:1 O:1',
        thermo=(NASA([100.00, 1669.93],